PSSE/Case Creation/collection.seq
@!IC, REV
0, 34/    Generated by PSSE Writer Developed at Mortenson by Ahmad Abdullah and Curtis Roe
RPTFORMAT, AMPOUT=0, POLROU=0, AMPOUTZ=0, POLROUZ=0
MOV, ITERATIONS=20, TOLERANCE=0.01, MOVALPHA=0.3
SCMODEL, SCNRML=1
0 / END OF SYSTEM-WIDE DATA, BEGIN GENERATOR DATA
@! I,'ID',ZRPOS,ZXPPDV,ZXPDV,ZXSDV,ZRNEG,ZXNEGDV,ZR0,ZX0DV,CZG,ZRG,ZXG,REFDEG
201005,'1',0.0,2.3,2.0,0.17,0.0,2.4,0.0,4.0,1,0,0,0
201006,'1',0.0,2.3,2.0,0.17,0.0,2.4,0.0,4.0,1,0,0,0
201007,'1',0.0,2.3,2.0,0.17,0.0,2.4,0.0,4.0,1,0,0,0
201008,'1',0.0,2.3,2.0,0.17,0.0,2.4,0.0,4.0,1,0,0,0
201009,'1',0.0,2.3,2.0,0.17,0.0,2.4,0.0,4.0,1,0,0,0
201010,'1',0.0,2.3,2.0,0.17,0.0,2.4,0.0,4.0,1,0,0,0
202015,'1',0.0,2.3,2.0,0.17,0.0,2.4,0.0,4.0,1,0,0,0
202016,'1',0.0,2.3,2.0,0.17,0.0,2.4,0.0,4.0,1,0,0,0
202017,'1',0.0,2.3,2.0,0.17,0.0,2.4,0.0,4.0,1,0,0,0
202018,'1',0.0,2.3,2.0,0.17,0.0,2.4,0.0,4.0,1,0,0,0
202019,'1',0.0,2.3,2.0,0.17,0.0,2.4,0.0,4.0,1,0,0,0
202020,'1',0.0,2.3,2.0,0.17,0.0,2.4,0.0,4.0,1,0,0,0
203024,'1',0.0,2.3,2.0,0.17,0.0,2.4,0.0,4.0,1,0,0,0
203025,'1',0.0,2.3,2.0,0.17,0.0,2.4,0.0,4.0,1,0,0,0
203026,'1',0.0,2.3,2.0,0.17,0.0,2.4,0.0,4.0,1,0,0,0
203027,'1',0.0,2.3,2.0,0.17,0.0,2.4,0.0,4.0,1,0,0,0
203028,'1',0.0,2.3,2.0,0.17,0.0,2.4,0.0,4.0,1,0,0,0
203029,'1',0.0,2.3,2.0,0.17,0.0,2.4,0.0,4.0,1,0,0,0
204033,'1',0.0,2.3,2.0,0.17,0.0,2.4,0.0,4.0,1,0,0,0
204034,'1',0.0,2.3,2.0,0.17,0.0,2.4,0.0,4.0,1,0,0,0
204035,'1',0.0,2.3,2.0,0.17,0.0,2.4,0.0,4.0,1,0,0,0
204036,'1',0.0,2.3,2.0,0.17,0.0,2.4,0.0,4.0,1,0,0,0
204037,'1',0.0,2.3,2.0,0.17,0.0,2.4,0.0,4.0,1,0,0,0
204038,'1',0.0,2.3,2.0,0.17,0.0,2.4,0.0,4.0,1,0,0,0
201042,'1',0.0,2.3,2.0,0.17,0.0,2.4,0.0,4.0,1,0,0,0
201043,'1',0.0,2.3,2.0,0.17,0.0,2.4,0.0,4.0,1,0,0,0
202047,'1',0.0,2.3,2.0,0.17,0.0,2.4,0.0,4.0,1,0,0,0
202048,'1',0.0,2.3,2.0,0.17,0.0,2.4,0.0,4.0,1,0,0,0
202049,'1',0.0,2.3,2.0,0.17,0.0,2.4,0.0,4.0,1,0,0,0
202050,'1',0.0,2.3,2.0,0.17,0.0,2.4,0.0,4.0,1,0,0,0
202051,'1',0.0,2.3,2.0,0.17,0.0,2.4,0.0,4.0,1,0,0,0
202052,'1',0.0,2.3,2.0,0.17,0.0,2.4,0.0,4.0,1,0,0,0
203056,'1',0.0,2.3,2.0,0.17,0.0,2.4,0.0,4.0,1,0,0,0
203057,'1',0.0,2.3,2.0,0.17,0.0,2.4,0.0,4.0,1,0,0,0
203058,'1',0.0,2.3,2.0,0.17,0.0,2.4,0.0,4.0,1,0,0,0
203059,'1',0.0,2.3,2.0,0.17,0.0,2.4,0.0,4.0,1,0,0,0
203060,'1',0.0,2.3,2.0,0.17,0.0,2.4,0.0,4.0,1,0,0,0
203061,'1',0.0,2.3,2.0,0.17,0.0,2.4,0.0,4.0,1,0,0,0
204063,'1',0.0,3.282,0.1975,0.1256,0.0,0.1975,0.0,0.3976,1,0,0,0
204064,'1',0.0,3.282,0.1975,0.1256,0.0,0.1975,0.0,0.3976,1,0,0,0
204065,'1',0.0,3.282,0.1975,0.1256,0.0,0.1975,0.0,0.3976,1,0,0,0
204066,'1',0.0,2.3,2.0,0.17,0.0,2.4,0.0,4.0,1,0,0,0
204067,'1',0.0,2.3,2.0,0.17,0.0,2.4,0.0,4.0,1,0,0,0
204068,'1',0.0,2.3,2.0,0.17,0.0,2.4,0.0,4.0,1,0,0,0
205073,'1',0.0,2.3,2.0,0.17,0.0,2.4,0.0,4.0,1,0,0,0
205074,'1',0.0,2.3,2.0,0.17,0.0,2.4,0.0,4.0,1,0,0,0
205075,'1',0.0,2.3,2.0,0.17,0.0,2.4,0.0,4.0,1,0,0,0
205076,'1',0.0,2.3,2.0,0.17,0.0,2.4,0.0,4.0,1,0,0,0
205077,'1',0.0,2.3,2.0,0.17,0.0,2.4,0.0,4.0,1,0,0,0
205078,'1',0.0,2.3,2.0,0.17,0.0,2.4,0.0,4.0,1,0,0,0
201082,'1',0.0,2.3,2.0,0.17,0.0,2.4,0.0,4.0,1,0,0,0
201083,'1',0.0,2.3,2.0,0.17,0.0,2.4,0.0,4.0,1,0,0,0
201084,'1',0.0,2.3,2.0,0.17,0.0,2.4,0.0,4.0,1,0,0,0
201085,'1',0.0,2.3,2.0,0.17,0.0,2.4,0.0,4.0,1,0,0,0
201086,'1',0.0,2.3,2.0,0.17,0.0,2.4,0.0,4.0,1,0,0,0
201087,'1',0.0,2.3,2.0,0.17,0.0,2.4,0.0,4.0,1,0,0,0
202090,'1',0.0,2.3,2.0,0.17,0.0,2.4,0.0,4.0,1,0,0,0
202091,'1',0.0,2.3,2.0,0.17,0.0,2.4,0.0,4.0,1,0,0,0
202092,'1',0.0,2.3,2.0,0.17,0.0,2.4,0.0,4.0,1,0,0,0
202093,'1',0.0,2.3,2.0,0.17,0.0,2.4,0.0,4.0,1,0,0,0
202094,'1',0.0,2.3,2.0,0.17,0.0,2.4,0.0,4.0,1,0,0,0
202095,'1',0.0,2.3,2.0,0.17,0.0,2.4,0.0,4.0,1,0,0,0
203099,'1',0.0,2.3,2.0,0.17,0.0,2.4,0.0,4.0,1,0,0,0
203100,'1',0.0,2.3,2.0,0.17,0.0,2.4,0.0,4.0,1,0,0,0
203101,'1',0.0,2.3,2.0,0.17,0.0,2.4,0.0,4.0,1,0,0,0
203102,'1',0.0,2.3,2.0,0.17,0.0,2.4,0.0,4.0,1,0,0,0
203103,'1',0.0,2.3,2.0,0.17,0.0,2.4,0.0,4.0,1,0,0,0
203104,'1',0.0,2.3,2.0,0.17,0.0,2.4,0.0,4.0,1,0,0,0
204106,'1',0.0,3.282,0.1975,0.1256,0.0,0.1975,0.0,0.3976,1,0,0,0
204107,'1',0.0,3.282,0.1975,0.1256,0.0,0.1975,0.0,0.3976,1,0,0,0
204108,'1',0.0,3.282,0.1975,0.1256,0.0,0.1975,0.0,0.3976,1,0,0,0
204109,'1',0.0,3.282,0.1975,0.1256,0.0,0.1975,0.0,0.3976,1,0,0,0
204110,'1',0.0,3.282,0.1975,0.1256,0.0,0.1975,0.0,0.3976,1,0,0,0
204111,'1',0.0,3.282,0.1975,0.1256,0.0,0.1975,0.0,0.3976,1,0,0,0
204112,'1',0.0,3.282,0.1975,0.1256,0.0,0.1975,0.0,0.3976,1,0,0,0
204113,'1',0.0,3.282,0.1975,0.1256,0.0,0.1975,0.0,0.3976,1,0,0,0
204114,'1',0.0,3.282,0.1975,0.1256,0.0,0.1975,0.0,0.3976,1,0,0,0
204115,'1',0.0,3.282,0.1975,0.1256,0.0,0.1975,0.0,0.3976,1,0,0,0
204116,'1',0.0,3.282,0.1975,0.1256,0.0,0.1975,0.0,0.3976,1,0,0,0
9,'1',7.8E-4,0.012225,0.0122,0.0122,7.84E-4,0.012259,0.00167,0.0115,1,0,0,0
0  / END OF GENERATOR DATA, BEGIN LOAD DATA
@!   I,'ID',PNEG,QNEG,GRDFLG,PZERO,QZERO
0  / END OF LOAD DATA, BEGIN ZERO SEQ. NON-TRANSFORMER BRANCH DATA
@! I,J,'ICKT',RLINZ,XLINZ,BCHZ,GI,BI,GJ,BJ,IPR,SCTYP
301001,1,'1',0.05088787423390046,0.5020019813286009,0.004407293060357915,0,0,0,0,0,0
301002,301001,'1',0.0506768680324927,0.4999204434108594,0.00438901828827511,0,0,0,0,0,0
301003,301002,'1',0.04190235572611427,0.41336106843393505,0.003629075981370988,0,0,0,0,0,0
301004,301003,'1',0.05121438900379292,0.505223040870197,0.004435572105358006,0,0,0,0,0,0
101005,301004,'1',0.03153480819432932,0.3110866190079655,0.0027311642547647353,0,0,0,0,0,0
101006,101005,'1',0.00968102934580344,0.0857812720821375,6.021261573641823E-4,0,0,0,0,0,0
101007,101006,'1',0.04731799043344114,0.3984389598568406,0.0023548385294998296,0,0,0,0,0,0
101008,101007,'1',0.011676812817934706,0.08128421994173034,4.238248041110637E-4,0,0,0,0,0,0
101009,101008,'1',0.021010538380427962,0.09424024909215173,3.412417265417389E-4,0,0,0,0,0,0
101010,101009,'1',0.03544753450627238,0.08698638510588863,2.6156492835980314E-4,0,0,0,0,0,0
302011,1,'1',0.050622058300329995,0.499379767562331,0.00438427145476453,0,0,0,0,0,0
302012,302011,'1',0.0503382195046258,0.496579718875224,0.0043596885867737,0,0,0,0,0,0
302013,302012,'1',0.04199287816772589,0.414254048921761,0.003636915894967387,0,0,0,0,0,0
302014,302013,'1',0.05185155401808753,0.511508597919005,0.004490755300648743,0,0,0,0,0,0
102015,302014,'1',0.049308707948943896,0.4864237384119096,0.0042705248115817085,0,0,0,0,0,0
102016,102015,'1',0.010203241650934506,0.09040847542756146,6.34605966424715E-4,0,0,0,0,0,0
102017,102016,'1',0.010926949830146377,0.09200988109310593,5.43793244223707E-4,0,0,0,0,0,0
102018,102017,'1',0.013795475628265335,0.09603257991515947,5.00724381663531E-4,0,0,0,0,0,0
102019,102018,'1',0.02045796664165264,0.09176175751072148,3.3226715242108185E-4,0,0,0,0,0,0
102020,102019,'1',0.037811927198487354,0.09278848476205596,2.7901163295155127E-4,0,0,0,0,0,0
303021,1,'1',0.05055871036868465,0.49875488153051817,0.004378785039443755,0,0,0,0,0,0
303022,303021,'1',0.04995175205191452,0.49276730513978323,0.0043262175735435445,0,0,0,0,0,0
303023,303022,'1',0.04215121795038946,0.41581606369162777,0.003650629162002588,0,0,0,0,0,0
103024,303023,'1',0.030471178894908305,0.30059405821407825,0.0026390454432112164,0,0,0,0,0,0
103025,103024,'1',0.009792362709702426,0.08676776713720016,6.090507302178594E-4,0,0,0,0,0,0
103026,103025,'1',0.011083061167783683,0.09332441327151719,5.515623173141649E-4,0,0,0,0,0,0
103027,103026,'1',0.01218979961104414,0.08485521045309033,4.4244433909625515E-4,0,0,0,0,0,0
103028,103027,'1',0.02051546052333012,0.09201963617380515,3.3320096105853735E-4,0,0,0,0,0,0
103029,103028,'1',0.03626050129830149,0.08898135920177862,2.6756376822049786E-4,0,0,0,0,0,0
304030,1,'1',0.05052987579236735,0.49847040174388507,0.004376287435297855,0,0,0,0,0,0
304031,304030,'1',0.04973721038491454,0.4906508332164166,0.00430763623007806,0,0,0,0,0,0
304032,304031,'1',0.042383682324690516,0.41810928886363896,0.0036707627612486246,0,0,0,0,0,0
104033,304032,'1',0.011930411113858399,0.11769189375885593,0.0010332681015825073,0,0,0,0,0,0
104034,104033,'1',0.00947433168010235,0.08394977571182556,5.892703375775454E-4,0,0,0,0,0,0
104035,104034,'1',0.03578283035111663,0.3013076814276109,0.0017807770336730755,0,0,0,0,0,0
104036,104035,'1',0.012932835795052586,0.0900276066299948,4.6941383066041454E-4,0,0,0,0,0,0
104037,104036,'1',0.02055575907217858,0.0922003856002721,3.3385543466920355E-4,0,0,0,0,0,0
104038,104037,'1',0.03773796035071127,0.09260697415886093,2.784658233076698E-4,0,0,0,0,0,0
301039,2,'1',0.11225214427169995,0.5034935271582216,0.001823138270592608,0,0,0,0,0,0
301040,301039,'1',0.11297729530646956,0.506746115441133,0.0018349156346084783,0,0,0,0,0,0
301041,301040,'1',0.10482758640416703,0.47019160462387266,0.0017025526607176288,0,0,0,0,0,0
101042,301041,'1',0.1042671199607088,0.4676776782626541,0.0016934497423062567,0,0,0,0,0,0
101043,101042,'1',0.038748690371402196,0.0950872484963122,2.8592392995960834E-4,0,0,0,0,0,0
302044,2,'1',0.048607599081749726,0.4795073661651964,0.004209803239718895,0,0,0,0,0,0
302045,302044,'1',0.048778693582350104,0.48119521546679317,0.00422462154936511,0,0,0,0,0,0
302046,302045,'1',0.045414617947484484,0.4480090719189771,0.003933265806699638,0,0,0,0,0,0
102047,302046,'1',0.04799591345687895,0.4734731977463169,0.004156826319158427,0,0,0,0,0,0
102048,102047,'1',0.009556673975758032,0.08467938864438931,5.943916818068829E-4,0,0,0,0,0,0
102049,102048,'1',0.011548558295061047,0.0972441028481996,5.74728331885126E-4,0,0,0,0,0,0
102050,102049,'1',0.01236493285527076,0.08607433513792792,4.488010187742475E-4,0,0,0,0,0,0
102051,102050,'1',0.021021242428166453,0.09428825330343649,3.4141555857786443E-4,0,0,0,0,0,0
102052,102051,'1',0.03713251687578483,0.09112124732501665,2.7399830317335726E-4,0,0,0,0,0,0
303053,2,'1',0.04871988767236503,0.48061507861420427,0.004219528307512519,0,0,0,0,0,0
303054,303053,'1',0.048768638037152964,0.48109606218247875,0.004223750678793294,0,0,0,0,0,0
303055,303054,'1',0.04546283749165943,0.4484847272501551,0.003937441759262583,0,0,0,0,0,0
103056,303055,'1',0.01896219928583611,0.18705952144976148,0.0016422765699826414,0,0,0,0,0,0
103057,103056,'1',0.009946745124541268,0.08813571188785879,6.186527364479843E-4,0,0,0,0,0,0
103058,103057,'1',0.010478162284759732,0.0882308890253174,5.214587828777439E-4,0,0,0,0,0,0
103059,103058,'1',0.012276448564503379,0.08545838291718665,4.455893804333755E-4,0,0,0,0,0,0
103060,103059,'1',0.01941363342267529,0.08707752600359181,3.153056576638846E-4,0,0,0,0,0,0
103061,103060,'1',0.03353281447777751,0.0822877663570501,2.4743633937305274E-4,0,0,0,0,0,0
304062,2,'1',0.057922719632144536,0.4877356064717726,0.00288259614186245,0,0,0,0,0,0
104063,304062,'1',0.041521141394375,0.3496268596300631,0.0020663512211103806,0,0,0,0,0,0
104064,104063,'1',0.02632581544157788,0.22167533517159277,0.0013101369607829837,0,0,0,0,0,0
104065,104064,'1',0.010334951515534273,0.07194330451418887,3.75120267535749E-4,0,0,0,0,0,0
104066,104065,'1',0.05243125018941282,0.3649825985705595,0.0019030591784030548,0,0,0,0,0,0
104067,104066,'1',0.020082519976338076,0.09007773412373156,3.2616934802717876E-4,0,0,0,0,0,0
104068,104067,'1',0.03661738050957984,0.08985712307387354,2.701971427859462E-4,0,0,0,0,0,0
305069,2,'1',0.04770890976846331,0.4706419808752921,0.0041319697885774075,0,0,0,0,0,0
305070,305069,'1',0.04766355966024353,0.4701945692069189,0.004128041864387342,0,0,0,0,0,0
305071,305070,'1',0.051264075816266054,0.5057131585592083,0.004439874843374127,0,0,0,0,0,0
305072,305071,'1',0.03435825305034122,0.3389394976866894,0.0029756968478614,0,0,0,0,0,0
105073,305072,'1',0.035079503054379464,0.346054537059429,0.0030381629321345827,0,0,0,0,0,0
105074,105073,'1',0.018748888271342204,0.16612938486510678,0.001166115267733403,0,0,0,0,0,0
105075,105074,'1',0.012647727536844672,0.10649961124220658,6.294298896773398E-4,0,0,0,0,0,0
105076,105075,'1',0.010479346615655711,0.07294845841457252,3.8036125254620857E-4,0,0,0,0,0,0
105077,105076,'1',0.019651976885652372,0.08814658870268359,3.191767059342965E-4,0,0,0,0,0,0
105078,105077,'1',0.036189316251001996,0.08880667915816969,2.6703848327088055E-4,0,0,0,0,0,0
301079,3,'1',0.04786523143124916,0.47218404480249687,0.004145508465808234,0,0,0,0,0,0
301080,301079,'1',0.04797624805548992,0.4732792178664581,0.004155123375749099,0,0,0,0,0,0
301081,301080,'1',0.05138736140750532,0.5069293587229328,0.004450552534108283,0,0,0,0,0,0
101082,301081,'1',0.03755516526178762,0.37047661194604026,0.003252574800280854,0,0,0,0,0,0
101083,101082,'1',0.008718235305917536,0.07725018359262185,5.422437597098906E-4,0,0,0,0,0,0
101084,101083,'1',0.009819646138049204,0.08268588682453915,4.88686908283853E-4,0,0,0,0,0,0
101085,101084,'1',0.044621702152950075,0.3106190161253319,0.0016196015459354384,0,0,0,0,0,0
101086,101085,'1',0.0195632910332843,0.08774879373840062,3.177363400482136E-4,0,0,0,0,0,0
101087,101086,'1',0.0328642834737706,0.08064722018290958,2.4250328972811984E-4,0,0,0,0,0,0
302088,3,'1',0.04763741424118263,0.46993665048190214,0.004125777393055614,0,0,0,0,0,0
302089,302088,'1',0.04796589204579486,0.4731770599371644,0.00415422617814329,0,0,0,0,0,0
102090,302089,'1',0.05200830634665374,0.5130549484730468,0.004504331389980507,0,0,0,0,0,0
102091,102090,'1',0.009009630157776777,0.07983216516261991,5.603674977555784E-4,0,0,0,0,0,0
102092,102091,'1',0.009952122187118675,0.08380139131952649,4.952797518490115E-4,0,0,0,0,0,0
102093,102092,'1',0.011732758055512481,0.08167366199297105,4.258554498119338E-4,0,0,0,0,0,0
102094,102093,'1',0.01989611180182691,0.08924162154987915,3.231418040695644E-4,0,0,0,0,0,0
102095,102094,'1',0.028790210230313938,0.0706496646338665,2.1244099953491967E-4,0,0,0,0,0,0
303096,3,'1',0.0472953854877141,0.4665625944179638,0.004096155322913546,0,0,0,0,0,0
303097,303096,'1',0.048247842922903766,0.47595847982540024,0.00417864554139669,0,0,0,0,0,0
303098,303097,'1',0.033566917198291725,0.3311331095351965,0.0029071609966194955,0,0,0,0,0,0
103099,303098,'1',0.05107666108568685,0.5038643404105911,0.004423643534100847,0,0,0,0,0,0
103100,103099,'1',0.008580764034570103,0.07603208549481885,5.336934925071545E-4,0,0,0,0,0,0
103101,103100,'1',0.03497675170770239,0.2945201283266404,0.001740661562034802,0,0,0,0,0,0
103102,103101,'1',0.010890213037533712,0.07580856995481425,3.9527417497083663E-4,0,0,0,0,0,0
103103,103102,'1',0.018336115151837803,0.0822444443841913,2.978051948275606E-4,0,0,0,0,0,0
103104,103103,'1',0.03364692839021769,0.08256779426137231,2.48278393100918E-4,0,0,0,0,0,0
304105,3,'1',0.02497290643516946,0.22127892234400023,0.0015532274559518556,0,0,0,0,0,0
104106,304105,'1',0.05532294555612783,0.49020330136224416,0.0034408938064734683,0,0,0,0,0,0
104107,104106,'1',0.008128321463759771,0.07202310287709547,5.055531840480399E-4,0,0,0,0,0,0
104108,104107,'1',0.038076804180501814,0.3206239831319904,0.0018949395400704816,0,0,0,0,0,0
104109,104108,'1',0.017753599621973676,0.1235857352417223,6.443895772281394E-4,0,0,0,0,0,0
104110,104109,'1',0.009278704879214297,0.0645905977235925,3.367824552560705E-4,0,0,0,0,0,0
104111,104110,'1',0.009234052724984483,0.06427976720049161,3.35161740526928E-4,0,0,0,0,0,0
104112,104111,'1',0.015639450038788926,0.07014888045517895,2.540074458147501E-4,0,0,0,0,0,0
104113,104112,'1',0.05793434260047251,0.2598575422979658,9.409380675424472E-4,0,0,0,0,0,0
104114,104113,'1',0.02584450637009734,0.06342105969639542,1.9070485034717422E-4,0,0,0,0,0,0
104115,104114,'1',0.02668434219985318,0.06548197072635452,1.9690192238158488E-4,0,0,0,0,0,0
104116,104115,'1',0.027683804801872013,0.0679346023299969,2.0427689103144075E-4,0,0,0,0,0,0
101005,401005,'1',0.0023905903,0.001873892,0.26547337,0,0,0,0,0,0
101006,401006,'1',0.0023905903,0.001873892,0.26547337,0,0,0,0,0,0
101007,401007,'1',0.0023905903,0.001873892,0.26547337,0,0,0,0,0,0
101008,401008,'1',0.0023905903,0.001873892,0.26547337,0,0,0,0,0,0
101009,401009,'1',0.0023905903,0.001873892,0.26547337,0,0,0,0,0,0
101010,401010,'1',0.0023905903,0.001873892,0.26547337,0,0,0,0,0,0
102015,402015,'1',0.0023905903,0.001873892,0.26547337,0,0,0,0,0,0
102016,402016,'1',0.0023905903,0.001873892,0.26547337,0,0,0,0,0,0
102017,402017,'1',0.0023905903,0.001873892,0.26547337,0,0,0,0,0,0
102018,402018,'1',0.0023905903,0.001873892,0.26547337,0,0,0,0,0,0
102019,402019,'1',0.0023905903,0.001873892,0.26547337,0,0,0,0,0,0
102020,402020,'1',0.0023905903,0.001873892,0.26547337,0,0,0,0,0,0
103024,403024,'1',0.0023905903,0.001873892,0.26547337,0,0,0,0,0,0
103025,403025,'1',0.0023905903,0.001873892,0.26547337,0,0,0,0,0,0
103026,403026,'1',0.0023905903,0.001873892,0.26547337,0,0,0,0,0,0
103027,403027,'1',0.0023905903,0.001873892,0.26547337,0,0,0,0,0,0
103028,403028,'1',0.0023905903,0.001873892,0.26547337,0,0,0,0,0,0
103029,403029,'1',0.0023905903,0.001873892,0.26547337,0,0,0,0,0,0
104033,404033,'1',0.0023905903,0.001873892,0.26547337,0,0,0,0,0,0
104034,404034,'1',0.0023905903,0.001873892,0.26547337,0,0,0,0,0,0
104035,404035,'1',0.0023905903,0.001873892,0.26547337,0,0,0,0,0,0
104036,404036,'1',0.0023905903,0.001873892,0.26547337,0,0,0,0,0,0
104037,404037,'1',0.0023905903,0.001873892,0.26547337,0,0,0,0,0,0
104038,404038,'1',0.0023905903,0.001873892,0.26547337,0,0,0,0,0,0
101042,401042,'1',0.0023905903,0.001873892,0.26547337,0,0,0,0,0,0
101043,401043,'1',0.0023905903,0.001873892,0.26547337,0,0,0,0,0,0
102047,402047,'1',0.0023905903,0.001873892,0.26547337,0,0,0,0,0,0
102048,402048,'1',0.0023905903,0.001873892,0.26547337,0,0,0,0,0,0
102049,402049,'1',0.0023905903,0.001873892,0.26547337,0,0,0,0,0,0
102050,402050,'1',0.0023905903,0.001873892,0.26547337,0,0,0,0,0,0
102051,402051,'1',0.0023905903,0.001873892,0.26547337,0,0,0,0,0,0
102052,402052,'1',0.0023905903,0.001873892,0.26547337,0,0,0,0,0,0
103056,403056,'1',0.0023905903,0.001873892,0.26547337,0,0,0,0,0,0
103057,403057,'1',0.0023905903,0.001873892,0.26547337,0,0,0,0,0,0
103058,403058,'1',0.0023905903,0.001873892,0.26547337,0,0,0,0,0,0
103059,403059,'1',0.0023905903,0.001873892,0.26547337,0,0,0,0,0,0
103060,403060,'1',0.0023905903,0.001873892,0.26547337,0,0,0,0,0,0
103061,403061,'1',0.0023905903,0.001873892,0.26547337,0,0,0,0,0,0
104063,404063,'1',0.0023905903,0.001873892,0.26547337,0,0,0,0,0,0
104064,404064,'1',0.0023905903,0.001873892,0.26547337,0,0,0,0,0,0
104065,404065,'1',0.0023905903,0.001873892,0.26547337,0,0,0,0,0,0
104066,404066,'1',0.0023905903,0.001873892,0.26547337,0,0,0,0,0,0
104067,404067,'1',0.0023905903,0.001873892,0.26547337,0,0,0,0,0,0
104068,404068,'1',0.0023905903,0.001873892,0.26547337,0,0,0,0,0,0
105073,405073,'1',0.0023905903,0.001873892,0.26547337,0,0,0,0,0,0
105074,405074,'1',0.0023905903,0.001873892,0.26547337,0,0,0,0,0,0
105075,405075,'1',0.0023905903,0.001873892,0.26547337,0,0,0,0,0,0
105076,405076,'1',0.0023905903,0.001873892,0.26547337,0,0,0,0,0,0
105077,405077,'1',0.0023905903,0.001873892,0.26547337,0,0,0,0,0,0
105078,405078,'1',0.0023905903,0.001873892,0.26547337,0,0,0,0,0,0
101082,401082,'1',0.0023905903,0.001873892,0.26547337,0,0,0,0,0,0
101083,401083,'1',0.0023905903,0.001873892,0.26547337,0,0,0,0,0,0
101084,401084,'1',0.0023905903,0.001873892,0.26547337,0,0,0,0,0,0
101085,401085,'1',0.0023905903,0.001873892,0.26547337,0,0,0,0,0,0
101086,401086,'1',0.0023905903,0.001873892,0.26547337,0,0,0,0,0,0
101087,401087,'1',0.0023905903,0.001873892,0.26547337,0,0,0,0,0,0
102090,402090,'1',0.0023905903,0.001873892,0.26547337,0,0,0,0,0,0
102091,402091,'1',0.0023905903,0.001873892,0.26547337,0,0,0,0,0,0
102092,402092,'1',0.0023905903,0.001873892,0.26547337,0,0,0,0,0,0
102093,402093,'1',0.0023905903,0.001873892,0.26547337,0,0,0,0,0,0
102094,402094,'1',0.0023905903,0.001873892,0.26547337,0,0,0,0,0,0
102095,402095,'1',0.0023905903,0.001873892,0.26547337,0,0,0,0,0,0
103099,403099,'1',0.0023905903,0.001873892,0.26547337,0,0,0,0,0,0
103100,403100,'1',0.0023905903,0.001873892,0.26547337,0,0,0,0,0,0
103101,403101,'1',0.0023905903,0.001873892,0.26547337,0,0,0,0,0,0
103102,403102,'1',0.0023905903,0.001873892,0.26547337,0,0,0,0,0,0
103103,403103,'1',0.0023905903,0.001873892,0.26547337,0,0,0,0,0,0
103104,403104,'1',0.0023905903,0.001873892,0.26547337,0,0,0,0,0,0
104106,404106,'1',0.0023905903,0.001873892,0.26547337,0,0,0,0,0,0
104107,404107,'1',0.0023905903,0.001873892,0.26547337,0,0,0,0,0,0
104108,404108,'1',0.0023905903,0.001873892,0.26547337,0,0,0,0,0,0
104109,404109,'1',0.0023905903,0.001873892,0.26547337,0,0,0,0,0,0
104110,404110,'1',0.0023905903,0.001873892,0.26547337,0,0,0,0,0,0
104111,404111,'1',0.0023905903,0.001873892,0.26547337,0,0,0,0,0,0
104112,404112,'1',0.0023905903,0.001873892,0.26547337,0,0,0,0,0,0
104113,404113,'1',0.0023905903,0.001873892,0.26547337,0,0,0,0,0,0
104114,404114,'1',0.0023905903,0.001873892,0.26547337,0,0,0,0,0,0
104115,404115,'1',0.0023905903,0.001873892,0.26547337,0,0,0,0,0,0
104116,404116,'1',0.0023905903,0.001873892,0.26547337,0,0,0,0,0,0
8,9,'1',0.010388771,0.04183327,0.019825332,0,0,0,0,0,0
0  / END OF ZERO SEQ. NON-TRANSFORMER BRANCH DATA, BEGIN ZERO SEQ. MUTUAL DATA
@! I,J,'ICKT1',K,L,'ICKT2',RM,XM,BIJ1,BIJ2,BKL1,BKL2
0  / END OF ZERO SEQ. MUTUAL DATA, BEGIN ZERO SEQ. TRANSFORMER DATA
@! I,J,K,'ICKT',CZ0,CZG,CC,RG1,XG1,R01,X01,RG2,XG2,R02,X02,RNUTRL,XNUTRL
@! I,J,K,'ICKT',CZ0,CZG,CC,RG1,XG1,R01,X01,RG2,XG2,R02,X02,RG3,XG3,R03,X03,RNUTRL,XNUTRL
401005,201005,0,'1',2,1,13,0,0,0.0062001324,0.090788536,0,0,0,0,0,0
401006,201006,0,'1',2,1,13,0,0,0.0062001324,0.090788536,0,0,0,0,0,0
401007,201007,0,'1',2,1,13,0,0,0.0062001324,0.090788536,0,0,0,0,0,0
401008,201008,0,'1',2,1,13,0,0,0.0062001324,0.090788536,0,0,0,0,0,0
401009,201009,0,'1',2,1,13,0,0,0.0062001324,0.090788536,0,0,0,0,0,0
401010,201010,0,'1',2,1,13,0,0,0.0062001324,0.090788536,0,0,0,0,0,0
402015,202015,0,'1',2,1,13,0,0,0.0062001324,0.090788536,0,0,0,0,0,0
402016,202016,0,'1',2,1,13,0,0,0.0062001324,0.090788536,0,0,0,0,0,0
402017,202017,0,'1',2,1,13,0,0,0.0062001324,0.090788536,0,0,0,0,0,0
402018,202018,0,'1',2,1,13,0,0,0.0062001324,0.090788536,0,0,0,0,0,0
402019,202019,0,'1',2,1,13,0,0,0.0062001324,0.090788536,0,0,0,0,0,0
402020,202020,0,'1',2,1,13,0,0,0.0062001324,0.090788536,0,0,0,0,0,0
403024,203024,0,'1',2,1,13,0,0,0.0062001324,0.090788536,0,0,0,0,0,0
403025,203025,0,'1',2,1,13,0,0,0.0062001324,0.090788536,0,0,0,0,0,0
403026,203026,0,'1',2,1,13,0,0,0.0062001324,0.090788536,0,0,0,0,0,0
403027,203027,0,'1',2,1,13,0,0,0.0062001324,0.090788536,0,0,0,0,0,0
403028,203028,0,'1',2,1,13,0,0,0.0062001324,0.090788536,0,0,0,0,0,0
403029,203029,0,'1',2,1,13,0,0,0.0062001324,0.090788536,0,0,0,0,0,0
404033,204033,0,'1',2,1,13,0,0,0.0062001324,0.090788536,0,0,0,0,0,0
404034,204034,0,'1',2,1,13,0,0,0.0062001324,0.090788536,0,0,0,0,0,0
404035,204035,0,'1',2,1,13,0,0,0.0062001324,0.090788536,0,0,0,0,0,0
404036,204036,0,'1',2,1,13,0,0,0.0062001324,0.090788536,0,0,0,0,0,0
404037,204037,0,'1',2,1,13,0,0,0.0062001324,0.090788536,0,0,0,0,0,0
404038,204038,0,'1',2,1,13,0,0,0.0062001324,0.090788536,0,0,0,0,0,0
401042,201042,0,'1',2,1,13,0,0,0.0062001324,0.090788536,0,0,0,0,0,0
401043,201043,0,'1',2,1,13,0,0,0.0062001324,0.090788536,0,0,0,0,0,0
402047,202047,0,'1',2,1,13,0,0,0.0062001324,0.090788536,0,0,0,0,0,0
402048,202048,0,'1',2,1,13,0,0,0.0062001324,0.090788536,0,0,0,0,0,0
402049,202049,0,'1',2,1,13,0,0,0.0062001324,0.090788536,0,0,0,0,0,0
402050,202050,0,'1',2,1,13,0,0,0.0062001324,0.090788536,0,0,0,0,0,0
402051,202051,0,'1',2,1,13,0,0,0.0062001324,0.090788536,0,0,0,0,0,0
402052,202052,0,'1',2,1,13,0,0,0.0062001324,0.090788536,0,0,0,0,0,0
403056,203056,0,'1',2,1,13,0,0,0.0062001324,0.090788536,0,0,0,0,0,0
403057,203057,0,'1',2,1,13,0,0,0.0062001324,0.090788536,0,0,0,0,0,0
403058,203058,0,'1',2,1,13,0,0,0.0062001324,0.090788536,0,0,0,0,0,0
403059,203059,0,'1',2,1,13,0,0,0.0062001324,0.090788536,0,0,0,0,0,0
403060,203060,0,'1',2,1,13,0,0,0.0062001324,0.090788536,0,0,0,0,0,0
403061,203061,0,'1',2,1,13,0,0,0.0062001324,0.090788536,0,0,0,0,0,0
404063,204063,0,'1',2,1,13,0,0,0.0080435015,0.11401664,0,0,0,0,0,0
404064,204064,0,'1',2,1,13,0,0,0.0080435015,0.11401664,0,0,0,0,0,0
404065,204065,0,'1',2,1,13,0,0,0.0080435015,0.11401664,0,0,0,0,0,0
404066,204066,0,'1',2,1,13,0,0,0.0062001324,0.090788536,0,0,0,0,0,0
404067,204067,0,'1',2,1,13,0,0,0.0062001324,0.090788536,0,0,0,0,0,0
404068,204068,0,'1',2,1,13,0,0,0.0062001324,0.090788536,0,0,0,0,0,0
405073,205073,0,'1',2,1,13,0,0,0.0062001324,0.090788536,0,0,0,0,0,0
405074,205074,0,'1',2,1,13,0,0,0.0062001324,0.090788536,0,0,0,0,0,0
405075,205075,0,'1',2,1,13,0,0,0.0062001324,0.090788536,0,0,0,0,0,0
405076,205076,0,'1',2,1,13,0,0,0.0062001324,0.090788536,0,0,0,0,0,0
405077,205077,0,'1',2,1,13,0,0,0.0062001324,0.090788536,0,0,0,0,0,0
405078,205078,0,'1',2,1,13,0,0,0.0062001324,0.090788536,0,0,0,0,0,0
401082,201082,0,'1',2,1,13,0,0,0.0062001324,0.090788536,0,0,0,0,0,0
401083,201083,0,'1',2,1,13,0,0,0.0062001324,0.090788536,0,0,0,0,0,0
401084,201084,0,'1',2,1,13,0,0,0.0062001324,0.090788536,0,0,0,0,0,0
401085,201085,0,'1',2,1,13,0,0,0.0062001324,0.090788536,0,0,0,0,0,0
401086,201086,0,'1',2,1,13,0,0,0.0062001324,0.090788536,0,0,0,0,0,0
401087,201087,0,'1',2,1,13,0,0,0.0062001324,0.090788536,0,0,0,0,0,0
402090,202090,0,'1',2,1,13,0,0,0.0062001324,0.090788536,0,0,0,0,0,0
402091,202091,0,'1',2,1,13,0,0,0.0062001324,0.090788536,0,0,0,0,0,0
402092,202092,0,'1',2,1,13,0,0,0.0062001324,0.090788536,0,0,0,0,0,0
402093,202093,0,'1',2,1,13,0,0,0.0062001324,0.090788536,0,0,0,0,0,0
402094,202094,0,'1',2,1,13,0,0,0.0062001324,0.090788536,0,0,0,0,0,0
402095,202095,0,'1',2,1,13,0,0,0.0062001324,0.090788536,0,0,0,0,0,0
403099,203099,0,'1',2,1,13,0,0,0.0062001324,0.090788536,0,0,0,0,0,0
403100,203100,0,'1',2,1,13,0,0,0.0062001324,0.090788536,0,0,0,0,0,0
403101,203101,0,'1',2,1,13,0,0,0.0062001324,0.090788536,0,0,0,0,0,0
403102,203102,0,'1',2,1,13,0,0,0.0062001324,0.090788536,0,0,0,0,0,0
403103,203103,0,'1',2,1,13,0,0,0.0062001324,0.090788536,0,0,0,0,0,0
403104,203104,0,'1',2,1,13,0,0,0.0062001324,0.090788536,0,0,0,0,0,0
404106,204106,0,'1',2,1,13,0,0,0.0080435015,0.11401664,0,0,0,0,0,0
404107,204107,0,'1',2,1,13,0,0,0.0080435015,0.11401664,0,0,0,0,0,0
404108,204108,0,'1',2,1,13,0,0,0.0080435015,0.11401664,0,0,0,0,0,0
404109,204109,0,'1',2,1,13,0,0,0.0080435015,0.11401664,0,0,0,0,0,0
404110,204110,0,'1',2,1,13,0,0,0.0080435015,0.11401664,0,0,0,0,0,0
404111,204111,0,'1',2,1,13,0,0,0.0080435015,0.11401664,0,0,0,0,0,0
404112,204112,0,'1',2,1,13,0,0,0.0080435015,0.11401664,0,0,0,0,0,0
404113,204113,0,'1',2,1,13,0,0,0.0080435015,0.11401664,0,0,0,0,0,0
404114,204114,0,'1',2,1,13,0,0,0.0080435015,0.11401664,0,0,0,0,0,0
404115,204115,0,'1',2,1,13,0,0,0.0080435015,0.11401664,0,0,0,0,0,0
404116,204116,0,'1',2,1,13,0,0,0.0080435015,0.11401664,0,0,0,0,0,0
8,1,0,'1',2,1,11,0,0,0.0024995,0.124975,0,0,0,0,0,0
8,2,0,'1',2,1,11,0,0,0.0024995,0.124975,0,0,0,0,0,0
8,3,0,'1',2,1,11,0,0,0.0024995,0.124975,0,0,0,0,0,0
0  / END OF ZERO SEQ. TRANSFORMER DATA, BEGIN ZERO SEQ. SWITCHED SHUNT DATA
@! I,BZ1,BZ2,BZ3,BZ4,BZ5,BZ6,BZ7,BZ8
0  / END OF ZERO SEQ. SWITCHED SHUNT DATA, BEGIN ZERO SEQ. FIXED SHUNT DATA
@! I,'ID',GSZERO,BSZERO
0  / END OF ZERO SEQ. FIXED SHUNT DATA, BEGIN INDUCTION MACHINE DATA
@! I,'ID',CZG,GRDFLG,ILR2IR,RTOX,ZR0,ZX0,ZRG,ZXG,ILR2IR_TRN,RTOX_TRN,ILR2IR_NEG,RTOX_NEG
0  / END OF INDUCTION MACHINE DATA, BEGIN NON CONVENTIONAL SOURCE FAULT CONTRIBUTION DATA
@! I,'ID',T1,C1P,C1Q,T2,C2P,C2Q,T3,C3P,C3Q,T4,C4P,C4Q,T5,C5P,C5Q,T6,C6P,C6Q
0  / END OF NON CONVENTIONAL SOURCE FAULT CONTRIBUTION DATA
Q
